Version 4
SHEET 1 1116 740
WIRE 496 -32 352 -32
WIRE 528 -32 496 -32
WIRE 496 64 496 -32
WIRE 352 128 352 -32
WIRE 352 128 288 128
WIRE 352 160 352 128
WIRE -400 176 -400 16
WIRE -400 176 -464 176
WIRE 288 192 288 128
WIRE 320 192 288 192
WIRE -400 208 -400 176
WIRE 496 208 496 144
WIRE 704 224 656 224
WIRE 832 224 784 224
WIRE 880 224 832 224
WIRE 976 224 944 224
WIRE -464 240 -464 176
WIRE -432 240 -464 240
WIRE 832 256 832 224
WIRE 976 272 976 224
WIRE -400 320 -400 272
WIRE 496 336 496 288
WIRE 832 368 832 336
WIRE 352 384 352 224
WIRE 432 384 352 384
WIRE 352 432 352 384
WIRE -400 448 -400 400
WIRE 832 448 832 432
WIRE 880 448 832 448
WIRE 976 448 944 448
WIRE 832 464 832 448
WIRE 976 480 976 448
WIRE 496 496 496 432
WIRE 656 496 656 224
WIRE 656 496 496 496
WIRE 352 576 352 512
WIRE 832 576 832 544
WIRE 976 576 976 560
FLAG 272 -32 0
FLAG 592 -32 0
FLAG 352 576 0
FLAG 976 272 0
FLAG 832 576 0
FLAG 976 448 Vout
FLAG -480 16 0
FLAG -400 448 0
FLAG 976 576 0
SYMBOL voltage 368 -32 R90
WINDOW 0 -32 56 VBottom 2
WINDOW 3 32 56 VTop 2
SYMATTR InstName Vcc
SYMATTR Value 30
SYMBOL cap 592 -48 R90
WINDOW 0 0 32 VBottom 2
WINDOW 3 32 32 VTop 2
SYMATTR InstName C3
SYMATTR Value 100n
SYMBOL pnp 432 432 M180
SYMATTR InstName Q1
SYMATTR Value BD140
SYMBOL res 336 416 R0
SYMATTR InstName R1
SYMATTR Value 5600
SYMBOL res 480 192 R0
SYMATTR InstName R2
SYMATTR Value 22
SYMBOL cap 880 240 R270
WINDOW 0 -35 32 VTop 2
WINDOW 3 62 33 VBottom 2
SYMATTR InstName C2
SYMATTR Value 22n
SYMBOL ind 816 240 R0
WINDOW 0 -28 65 Left 2
WINDOW 3 -46 38 Left 2
SYMATTR InstName L1
SYMATTR Value 15µ
SYMBOL zener 848 432 R180
WINDOW 0 43 36 Left 2
WINDOW 3 47 13 Left 2
SYMATTR InstName Zener
SYMATTR Value BZX84B22VL
SYMBOL res 816 448 R0
SYMATTR InstName R3
SYMATTR Value 51
SYMBOL cap 944 432 R90
WINDOW 0 0 32 VBottom 2
WINDOW 3 32 32 VTop 2
SYMATTR InstName C1
SYMATTR Value 10n
SYMBOL res 800 208 R90
WINDOW 0 0 56 VBottom 2
WINDOW 3 -52 55 VTop 2
SYMATTR InstName Amperímetro
SYMATTR Value 0.000001
SYMBOL ZZZ\\VolReg\\TL431 -416 208 R0
SYMATTR InstName U2
SYMBOL voltage -384 16 R90
WINDOW 0 -32 56 VBottom 2
WINDOW 3 32 56 VTop 2
SYMATTR InstName Vcc1
SYMATTR Value 3
SYMBOL res -416 304 R0
SYMATTR InstName R4
SYMATTR Value 5k
SYMBOL ZZZ\\VolReg\\TL431 336 160 R0
SYMATTR InstName U1
SYMBOL res 480 48 R0
SYMATTR InstName R5
SYMATTR Value 5k
SYMBOL res 960 464 R0
SYMATTR InstName R6
SYMATTR Value 50
TEXT 256 600 Left 2 !.tran .10
TEXT 256 696 Left 2 ;Corriente máxima: (Vcc - Veb_max)/(R2 + Pmin) = (2.5 - 0.7)/(22) = 81.8mA\nCorriente mínima: (Vcc - Veb_min)/(R2 + Pmax) = (2.5 - 0.54)/(5k + 22) = 0.39mA
TEXT -728 -224 Left 5 ;Test de polarización TL431
TEXT 568 -232 Left 5 ;Test 1 etapa
