Version 4
SHEET 1 2068 1092
WIRE 352 -32 352 -64
WIRE 496 -32 352 -32
WIRE 768 -32 768 -64
WIRE 912 -32 768 -32
WIRE 496 64 496 -32
WIRE 912 64 912 -32
WIRE -128 112 -128 64
WIRE 0 112 -128 112
WIRE 0 128 0 112
WIRE 352 128 352 -32
WIRE 352 128 288 128
WIRE 768 128 768 -32
WIRE 768 128 704 128
WIRE -128 144 -128 112
WIRE 352 160 352 128
WIRE 768 160 768 128
WIRE 288 192 288 128
WIRE 320 192 288 192
WIRE 704 192 704 128
WIRE 736 192 704 192
WIRE 496 208 496 144
WIRE 912 208 912 144
WIRE 0 224 0 192
WIRE 496 336 496 288
WIRE 912 336 912 288
WIRE 352 384 352 224
WIRE 432 384 352 384
WIRE 768 384 768 224
WIRE 848 384 768 384
WIRE 352 432 352 384
WIRE 768 432 768 384
WIRE 496 496 496 432
WIRE 912 496 912 432
WIRE 352 624 352 512
WIRE 352 624 288 624
WIRE 384 624 352 624
WIRE 496 624 496 576
WIRE 496 624 448 624
WIRE 768 624 768 512
WIRE 768 624 704 624
WIRE 912 624 912 576
WIRE 960 624 912 624
WIRE 1072 624 1024 624
WIRE 288 640 288 624
WIRE 704 640 704 624
WIRE 1072 640 1072 624
WIRE 496 672 496 624
WIRE 912 672 912 624
WIRE 768 704 768 624
WIRE 496 800 496 752
WIRE 912 800 912 752
WIRE 496 896 496 864
WIRE 768 896 768 784
WIRE 768 896 496 896
WIRE 912 896 912 864
WIRE 912 896 768 896
WIRE 1120 896 912 896
WIRE 1232 896 1184 896
WIRE 1232 944 1232 896
WIRE 1232 1072 1232 1024
FLAG 352 -64 Vcc
FLAG 768 -64 Vcc
FLAG -128 224 0
FLAG -128 64 Vcc
FLAG 0 224 0
FLAG 1232 896 Vout
FLAG 1072 640 0
FLAG 704 640 0
FLAG 1232 1072 0
FLAG 288 640 0
SYMBOL pnp 432 432 M180
SYMATTR InstName Q1
SYMATTR Value BD140
SYMBOL res 336 416 R0
SYMATTR InstName R1
SYMATTR Value 5600
SYMBOL res 480 192 R0
SYMATTR InstName R2
SYMATTR Value 22
SYMBOL ZZZ\\VolReg\\TL431 336 160 R0
SYMATTR InstName U1
SYMBOL res 480 48 R0
SYMATTR InstName R5
SYMATTR Value 0
SYMBOL pnp 848 432 M180
SYMATTR InstName Q2
SYMATTR Value BD140
SYMBOL res 752 416 R0
SYMATTR InstName R3
SYMATTR Value 5600
SYMBOL res 896 192 R0
SYMATTR InstName R4
SYMATTR Value 22
SYMBOL ZZZ\\VolReg\\TL431 752 160 R0
SYMATTR InstName U2
SYMBOL res 896 48 R0
SYMATTR InstName R8
SYMATTR Value 0
SYMBOL voltage -128 128 R0
SYMATTR InstName Vcc
SYMATTR Value 35
SYMBOL cap -16 128 R0
SYMATTR InstName C3
SYMATTR Value 100n
SYMBOL res 480 480 R0
SYMATTR InstName Amp1
SYMATTR Value 0.0001
SYMBOL res 896 480 R0
SYMATTR InstName Amp2
SYMATTR Value 0.0001
SYMBOL ind 480 656 R0
SYMATTR InstName RF_CHOKE_1
SYMATTR Value 15µ
SYMBOL ind 896 656 R0
SYMATTR InstName RF_CHOKE_2
SYMATTR Value 15µ
SYMBOL zener 512 864 R180
WINDOW 0 43 36 Left 2
WINDOW 3 47 13 Left 2
SYMATTR InstName Zener1
SYMATTR Value BZX84B22VL
SYMBOL zener 896 864 M180
WINDOW 0 43 36 Left 2
WINDOW 3 47 13 Left 2
SYMATTR InstName Zener2
SYMATTR Value BZX84B22VL
SYMBOL res 752 688 R0
SYMATTR InstName R11
SYMATTR Value 51
SYMBOL cap 1184 880 R90
WINDOW 0 0 32 VBottom 2
WINDOW 3 32 32 VTop 2
SYMATTR InstName C1
SYMATTR Value 10n
SYMBOL cap 448 608 R90
WINDOW 0 0 32 VBottom 2
WINDOW 3 32 32 VTop 2
SYMATTR InstName C2
SYMATTR Value 22n
SYMBOL cap 1024 608 R90
WINDOW 0 0 32 VBottom 2
WINDOW 3 32 32 VTop 2
SYMATTR InstName C4
SYMATTR Value 22n
SYMBOL res 1216 928 R0
SYMATTR InstName sma_connector
SYMATTR Value 50
TEXT 744 968 Left 2 !.tran .10
TEXT -848 696 Left 2 ;Corriente máxima: (Vcc - Veb_max)/(R2 + Pmin) = (2.5 - 0.7)/(22) = 81.8mA\nCorriente mínima: (Vcc - Veb_min)/(R2 + Pmax) = (2.5 - 0.54)/(5k + 22) = 0.39mA
TEXT 568 -232 Left 5 ;Test 1 etapa
